*Heading
** Generated with Matlab script
*Preprint, echo=NO, model=NO, history=NO, contact=NO
**
** PARTS
**
*Part, name=Lattice
*Node
      1,     -0.944894,      5.913577
      2,      1.000362,     13.270623
      3,      0.214514,     36.951797
      4,      0.533041,     45.880454
      5,     -1.187116,     64.594190
      6,      0.692589,     74.397605
      7,      7.273413,     -1.319161
      8,      9.469586,     19.648470
      9,     10.132529,     29.829093
     10,     10.517319,     48.816961
     11,      8.090978,     59.613947
     12,      7.711926,     81.841796
     13,      7.273413,     88.680839
     14,     16.603858,      4.145914
     15,     16.937603,     14.379441
     16,     15.705051,     35.690843
     17,     15.264656,     45.619396
     18,     16.517167,     64.886960
     19,     18.008314,     75.319505
     20,     24.302436,     -0.885629
** ... 64 like lines cut
*Element, type=B23
      1,       1,       2
      2,       1,       7
      3,       2,       8
      4,       3,       4
      5,       3,       9
      6,       4,      10
      7,       5,       6
      8,       5,      11
      9,       6,      12
     10,       7,      14
     11,       8,       9
     12,       8,      15
     13,       9,      16
     14,      10,      11
     15,      10,      17
     16,      11,      18
     17,      12,      13
     18,      12,      19
     19,      14,      15
     20,      14,      20
** ... 88 like lines cut
*Nset, nset=EntireLatticeSet, generate
   1, 84,   1
*Elset, elset=EntireLatticeSet, generate
   1, 108,   1
** Section: BeamSection  Profile: Rect
*Beam Section, elset=EntireLatticeSet, material=Elastic, temperature=GRADIENTS, section=RECT
1., 0.428134
0.,0.,1.
*End Part
**
**
** ASSEMBLY
**
*Assembly, name=Assembly
**
*Instance, name=Lattice, part=Lattice
*End Instance
**
*Nset, nset=B1, instance=Lattice
 7,
*Nset, nset=B2, instance=Lattice
 20,
*Nset, nset=B3, instance=Lattice
 33,
*Nset, nset=B4, instance=Lattice
 46,
*Nset, nset=B5, instance=Lattice
 59,
*Nset, nset=B6, instance=Lattice
 72,
*Nset, nset=L1, instance=Lattice
 1,
*Nset, nset=L2, instance=Lattice
 2,
*Nset, nset=L3, instance=Lattice
 3,
*Nset, nset=L4, instance=Lattice
 4,
*Nset, nset=L5, instance=Lattice
 5,
*Nset, nset=L6, instance=Lattice
 6,
*Nset, nset=R1, instance=Lattice
 79,
*Nset, nset=R2, instance=Lattice
 80,
*Nset, nset=R3, instance=Lattice
 81,
*Nset, nset=R4, instance=Lattice
 82,
*Nset, nset=R5, instance=Lattice
 83,
*Nset, nset=R6, instance=Lattice
 84,
*Nset, nset=T1, instance=Lattice
 13,
*Nset, nset=T2, instance=Lattice
 26,
*Nset, nset=T3, instance=Lattice
 39,
*Nset, nset=T4, instance=Lattice
 52,
*Nset, nset=T5, instance=Lattice
 65,
*Nset, nset=T6, instance=Lattice
 78,
*Equation
2
L1, 2, 1.
R1, 2, -1.
*Equation
2
L1, 6, 1.
R1, 6, -1.
*Equation
4
R2, 1, 1.
L2, 1, -1.
L1, 1, 1.
R1, 1, -1.
*Equation
2
L2, 2, 1.
R2, 2, -1.
*Equation
2
L2, 6, 1.
R2, 6, -1.
*Equation
4
R3, 1, 1.
L3, 1, -1.
L1, 1, 1.
R1, 1, -1.
*Equation
2
L3, 2, 1.
R3, 2, -1.
*Equation
2
L3, 6, 1.
R3, 6, -1.
*Equation
4
R4, 1, 1.
L4, 1, -1.
L1, 1, 1.
R1, 1, -1.
*Equation
2
L4, 2, 1.
R4, 2, -1.
*Equation
2
L4, 6, 1.
R4, 6, -1.
*Equation
4
R5, 1, 1.
L5, 1, -1.
L1, 1, 1.
R1, 1, -1.
*Equation
2
L5, 2, 1.
R5, 2, -1.
*Equation
2
L5, 6, 1.
R5, 6, -1.
*Equation
4
R6, 1, 1.
L6, 1, -1.
L1, 1, 1.
R1, 1, -1.
*Equation
2
L6, 2, 1.
R6, 2, -1.
*Equation
2
L6, 6, 1.
R6, 6, -1.
*Equation
2
B1, 1, 1.
T1, 1, -1.
*Equation
2
B1, 6, 1.
T1, 6, -1.
*Equation
4
T2, 2, 1.
B2, 2, -1.
B1, 2, 1.
T1, 2, -1.
*Equation
2
B2, 1, 1.
T2, 1, -1.
*Equation
2
B2, 6, 1.
T2, 6, -1.
*Equation
4
T3, 2, 1.
B3, 2, -1.
B1, 2, 1.
T1, 2, -1.
*Equation
2
B3, 1, 1.
T3, 1, -1.
*Equation
2
B3, 6, 1.
T3, 6, -1.
*Equation
4
T4, 2, 1.
B4, 2, -1.
B1, 2, 1.
T1, 2, -1.
*Equation
2
B4, 1, 1.
T4, 1, -1.
*Equation
2
B4, 6, 1.
T4, 6, -1.
*Equation
4
T5, 2, 1.
B5, 2, -1.
B1, 2, 1.
T1, 2, -1.
*Equation
2
B5, 1, 1.
T5, 1, -1.
*Equation
2
B5, 6, 1.
T5, 6, -1.
*Equation
4
T6, 2, 1.
B6, 2, -1.
B1, 2, 1.
T1, 2, -1.
*Equation
2
B6, 1, 1.
T6, 1, -1.
*Equation
2
B6, 6, 1.
T6, 6, -1.
*End Assembly
**
** MATERIALS
**
** A linear elastic model
*Material, name=Elastic
*Elastic
200000.000000, 0.333333
** ----------------------------------------------------------------
**
** STEP: Step-1
**
*Step, name=Step-1, nlgeom=NO, inc=30000
*Static
1., 1., 0.0001, 1.
**
** BOUNDARY CONDITIONS
**
** Name: Displ Type: Displacement/Rotation
*Boundary
B1, 1, 2
T1, 2, 2, 0.900000
**
** OUTPUT REQUESTS
***Restart, write, frequency=0
**
** FIELD OUTPUT: F-Output-1
**
*Output, field, variable=PRESELECT, number interval=1
**
** HISTORY OUTPUT: H-Output-1
**
*Output, history
*Node Output, nset=T1
RF2, U2
*End Step
