*Heading
** Generated with Matlab script
*Preprint, echo=NO, model=NO, history=NO, contact=NO
**
** PARTS
**
*Part, name=Lattice
*Node
      1,     -1.599498,     16.261512
      2,      0.170432,     52.193420
      3,     -0.868337,     84.103234
      4,      4.989623,      6.747518
      5,      2.988006,     24.893711
      6,      6.007993,     44.636647
      7,      4.098070,     62.327289
      8,      7.176923,     79.235193
      9,      3.403557,     96.566693
     10,      8.818246,      1.088645
     11,     11.445442,     35.098828
     12,     10.706258,     67.698776
     13,      8.818246,    105.011693
     14,     14.509366,      8.843746
     15,     14.668311,     28.160026
     16,     12.836525,     42.626787
     17,     12.990272,     62.256370
     18,     17.269704,     79.011082
     19,     14.975433,     96.981992
     20,     20.130652,     18.109970
** ... 84 like lines cut
*Element, type=B23
      1,       1,       4
      2,       1,       5
      3,       2,       6
      4,       2,       7
      5,       3,       8
      6,       3,       9
      7,       4,      10
      8,       4,      14
      9,       5,      11
     10,       5,      15
     11,       6,      11
     12,       6,      16
     13,       7,      12
     14,       7,      17
     15,       8,      12
     16,       8,      18
     17,       9,      13
     18,       9,      19
     19,      10,      14
     20,      11,      15
** ... 160 like lines cut
*Nset, nset=EntireLatticeSet, generate
   1, 104,   1
*Elset, elset=EntireLatticeSet, generate
   1, 180,   1
** Section: BeamSection  Profile: Rect
*Beam Section, elset=EntireLatticeSet, material=Elastic, temperature=GRADIENTS, section=RECT
1., 0.283622
0.,0.,1.
*End Part
**
**
** ASSEMBLY
**
*Assembly, name=Assembly
**
*Instance, name=Lattice, part=Lattice
*End Instance
**
*Nset, nset=B1, instance=Lattice
 10,
*Nset, nset=B2, instance=Lattice
 29,
*Nset, nset=B3, instance=Lattice
 48,
*Nset, nset=B4, instance=Lattice
 67,
*Nset, nset=B5, instance=Lattice
 86,
*Nset, nset=L1, instance=Lattice
 4,
*Nset, nset=L2, instance=Lattice
 1,
*Nset, nset=L3, instance=Lattice
 5,
*Nset, nset=L4, instance=Lattice
 6,
*Nset, nset=L5, instance=Lattice
 2,
*Nset, nset=L6, instance=Lattice
 7,
*Nset, nset=L7, instance=Lattice
 8,
*Nset, nset=L8, instance=Lattice
 3,
*Nset, nset=L9, instance=Lattice
 9,
*Nset, nset=R1, instance=Lattice
 99,
*Nset, nset=R2, instance=Lattice
 96,
*Nset, nset=R3, instance=Lattice
 100,
*Nset, nset=R4, instance=Lattice
 101,
*Nset, nset=R5, instance=Lattice
 97,
*Nset, nset=R6, instance=Lattice
 102,
*Nset, nset=R7, instance=Lattice
 103,
*Nset, nset=R8, instance=Lattice
 98,
*Nset, nset=R9, instance=Lattice
 104,
*Nset, nset=T1, instance=Lattice
 13,
*Nset, nset=T2, instance=Lattice
 32,
*Nset, nset=T3, instance=Lattice
 51,
*Nset, nset=T4, instance=Lattice
 70,
*Nset, nset=T5, instance=Lattice
 89,
*Equation
2
L1, 2, 1.
R1, 2, -1.
*Equation
2
L1, 6, 1.
R1, 6, -1.
*Equation
4
R2, 1, 1.
L2, 1, -1.
L1, 1, 1.
R1, 1, -1.
*Equation
2
L2, 2, 1.
R2, 2, -1.
*Equation
2
L2, 6, 1.
R2, 6, -1.
*Equation
4
R3, 1, 1.
L3, 1, -1.
L1, 1, 1.
R1, 1, -1.
*Equation
2
L3, 2, 1.
R3, 2, -1.
*Equation
2
L3, 6, 1.
R3, 6, -1.
*Equation
4
R4, 1, 1.
L4, 1, -1.
L1, 1, 1.
R1, 1, -1.
*Equation
2
L4, 2, 1.
R4, 2, -1.
*Equation
2
L4, 6, 1.
R4, 6, -1.
*Equation
4
R5, 1, 1.
L5, 1, -1.
L1, 1, 1.
R1, 1, -1.
*Equation
2
L5, 2, 1.
R5, 2, -1.
*Equation
2
L5, 6, 1.
R5, 6, -1.
*Equation
4
R6, 1, 1.
L6, 1, -1.
L1, 1, 1.
R1, 1, -1.
*Equation
2
L6, 2, 1.
R6, 2, -1.
*Equation
2
L6, 6, 1.
R6, 6, -1.
*Equation
4
R7, 1, 1.
L7, 1, -1.
L1, 1, 1.
R1, 1, -1.
*Equation
2
L7, 2, 1.
R7, 2, -1.
*Equation
2
L7, 6, 1.
R7, 6, -1.
*Equation
4
R8, 1, 1.
L8, 1, -1.
L1, 1, 1.
R1, 1, -1.
*Equation
2
L8, 2, 1.
R8, 2, -1.
*Equation
2
L8, 6, 1.
R8, 6, -1.
*Equation
4
R9, 1, 1.
L9, 1, -1.
L1, 1, 1.
R1, 1, -1.
*Equation
2
L9, 2, 1.
R9, 2, -1.
*Equation
2
L9, 6, 1.
R9, 6, -1.
*Equation
2
B1, 1, 1.
T1, 1, -1.
*Equation
2
B1, 6, 1.
T1, 6, -1.
*Equation
4
T2, 2, 1.
B2, 2, -1.
B1, 2, 1.
T1, 2, -1.
*Equation
2
B2, 1, 1.
T2, 1, -1.
*Equation
2
B2, 6, 1.
T2, 6, -1.
*Equation
4
T3, 2, 1.
B3, 2, -1.
B1, 2, 1.
T1, 2, -1.
*Equation
2
B3, 1, 1.
T3, 1, -1.
*Equation
2
B3, 6, 1.
T3, 6, -1.
*Equation
4
T4, 2, 1.
B4, 2, -1.
B1, 2, 1.
T1, 2, -1.
*Equation
2
B4, 1, 1.
T4, 1, -1.
*Equation
2
B4, 6, 1.
T4, 6, -1.
*Equation
4
T5, 2, 1.
B5, 2, -1.
B1, 2, 1.
T1, 2, -1.
*Equation
2
B5, 1, 1.
T5, 1, -1.
*Equation
2
B5, 6, 1.
T5, 6, -1.
*End Assembly
**
** MATERIALS
**
** A linear elastic model
*Material, name=Elastic
*Elastic
200000.000000, 0.333333
** ----------------------------------------------------------------
**
** STEP: Step-1
**
*Step, name=Step-1, nlgeom=NO, inc=30000
*Static
1., 1., 0.0001, 1.
**
** BOUNDARY CONDITIONS
**
** Name: Displ Type: Displacement/Rotation
*Boundary
B1, 1, 2
T1, 2, 2, 1.039230
**
** OUTPUT REQUESTS
***Restart, write, frequency=0
**
** FIELD OUTPUT: F-Output-1
**
*Output, field, variable=PRESELECT, number interval=1
**
** HISTORY OUTPUT: H-Output-1
**
*Output, history
*Node Output, nset=T1
RF2, U2
*End Step
