*Heading
** Generated with Matlab script
*Preprint, echo=NO, model=NO, history=NO, contact=NO
**
** PARTS
**
*Part, name=Lattice
*Node
      1,     -1.064835,     18.836791
      2,      1.022161,     31.142283
      3,     -2.782416,     66.485710
      4,     -0.065854,     83.596620
      5,      1.641282,      7.473757
      6,      8.235064,     24.818529
      7,      8.291135,     43.218833
      8,      5.817226,     59.337174
      9,      6.562831,     79.448754
     10,      1.834872,     93.352963
     11,      9.380017,      1.791072
     12,     10.164674,     14.400564
     13,     10.424861,     36.457075
     14,     12.394121,     52.011926
     15,      9.204577,     70.967474
     16,     11.276175,     89.512667
     17,      9.380017,    105.714117
     18,     15.436738,      8.810845
     19,     12.422241,     45.050975
     20,     12.031833,     60.508375
** ... 92 like lines cut
*Element, type=B23
      1,       1,       5
      2,       1,       6
      3,       1,      12
      4,       2,       6
      5,       2,       7
      6,       2,      13
      7,       3,       8
      8,       3,       9
      9,       3,      15
     10,       4,       9
     11,       4,      10
     12,       4,      16
     13,       5,      11
     14,       5,      12
     15,       5,      18
     16,       6,      12
     17,       6,      13
     18,       7,      13
     19,       7,      14
     20,       7,      19
** ... 232 like lines cut
*Nset, nset=EntireLatticeSet, generate
   1, 112,   1
*Elset, elset=EntireLatticeSet, generate
   1, 252,   1
** Section: BeamSection  Profile: Rect
*Beam Section, elset=EntireLatticeSet, material=Elastic, temperature=GRADIENTS, section=RECT
1., 0.177669
0.,0.,1.
*End Part
**
**
** ASSEMBLY
**
*Assembly, name=Assembly
**
*Instance, name=Lattice, part=Lattice
*End Instance
**
*Nset, nset=B1, instance=Lattice
 11,
*Nset, nset=B2, instance=Lattice
 22,
*Nset, nset=B3, instance=Lattice
 45,
*Nset, nset=B4, instance=Lattice
 56,
*Nset, nset=B5, instance=Lattice
 79,
*Nset, nset=B6, instance=Lattice
 90,
*Nset, nset=L1, instance=Lattice
 5,
*Nset, nset=L2, instance=Lattice
 1,
*Nset, nset=L3, instance=Lattice
 6,
*Nset, nset=L4, instance=Lattice
 2,
*Nset, nset=L5, instance=Lattice
 7,
*Nset, nset=L6, instance=Lattice
 8,
*Nset, nset=L7, instance=Lattice
 3,
*Nset, nset=L8, instance=Lattice
 9,
*Nset, nset=L9, instance=Lattice
 4,
*Nset, nset=L10, instance=Lattice
 10,
*Nset, nset=R1, instance=Lattice
 107,
*Nset, nset=R2, instance=Lattice
 103,
*Nset, nset=R3, instance=Lattice
 108,
*Nset, nset=R4, instance=Lattice
 104,
*Nset, nset=R5, instance=Lattice
 109,
*Nset, nset=R6, instance=Lattice
 110,
*Nset, nset=R7, instance=Lattice
 105,
*Nset, nset=R8, instance=Lattice
 111,
*Nset, nset=R9, instance=Lattice
 106,
*Nset, nset=R10, instance=Lattice
 112,
*Nset, nset=T1, instance=Lattice
 17,
*Nset, nset=T2, instance=Lattice
 28,
*Nset, nset=T3, instance=Lattice
 51,
*Nset, nset=T4, instance=Lattice
 62,
*Nset, nset=T5, instance=Lattice
 85,
*Nset, nset=T6, instance=Lattice
 96,
*Equation
2
L1, 2, 1.
R1, 2, -1.
*Equation
2
L1, 6, 1.
R1, 6, -1.
*Equation
4
R2, 1, 1.
L2, 1, -1.
L1, 1, 1.
R1, 1, -1.
*Equation
2
L2, 2, 1.
R2, 2, -1.
*Equation
2
L2, 6, 1.
R2, 6, -1.
*Equation
4
R3, 1, 1.
L3, 1, -1.
L1, 1, 1.
R1, 1, -1.
*Equation
2
L3, 2, 1.
R3, 2, -1.
*Equation
2
L3, 6, 1.
R3, 6, -1.
*Equation
4
R4, 1, 1.
L4, 1, -1.
L1, 1, 1.
R1, 1, -1.
*Equation
2
L4, 2, 1.
R4, 2, -1.
*Equation
2
L4, 6, 1.
R4, 6, -1.
*Equation
4
R5, 1, 1.
L5, 1, -1.
L1, 1, 1.
R1, 1, -1.
*Equation
2
L5, 2, 1.
R5, 2, -1.
*Equation
2
L5, 6, 1.
R5, 6, -1.
*Equation
4
R6, 1, 1.
L6, 1, -1.
L1, 1, 1.
R1, 1, -1.
*Equation
2
L6, 2, 1.
R6, 2, -1.
*Equation
2
L6, 6, 1.
R6, 6, -1.
*Equation
4
R7, 1, 1.
L7, 1, -1.
L1, 1, 1.
R1, 1, -1.
*Equation
2
L7, 2, 1.
R7, 2, -1.
*Equation
2
L7, 6, 1.
R7, 6, -1.
*Equation
4
R8, 1, 1.
L8, 1, -1.
L1, 1, 1.
R1, 1, -1.
*Equation
2
L8, 2, 1.
R8, 2, -1.
*Equation
2
L8, 6, 1.
R8, 6, -1.
*Equation
4
R9, 1, 1.
L9, 1, -1.
L1, 1, 1.
R1, 1, -1.
*Equation
2
L9, 2, 1.
R9, 2, -1.
*Equation
2
L9, 6, 1.
R9, 6, -1.
*Equation
4
R10, 1, 1.
L10, 1, -1.
L1, 1, 1.
R1, 1, -1.
*Equation
2
L10, 2, 1.
R10, 2, -1.
*Equation
2
L10, 6, 1.
R10, 6, -1.
*Equation
2
B1, 1, 1.
T1, 1, -1.
*Equation
2
B1, 6, 1.
T1, 6, -1.
*Equation
4
T2, 2, 1.
B2, 2, -1.
B1, 2, 1.
T1, 2, -1.
*Equation
2
B2, 1, 1.
T2, 1, -1.
*Equation
2
B2, 6, 1.
T2, 6, -1.
*Equation
4
T3, 2, 1.
B3, 2, -1.
B1, 2, 1.
T1, 2, -1.
*Equation
2
B3, 1, 1.
T3, 1, -1.
*Equation
2
B3, 6, 1.
T3, 6, -1.
*Equation
4
T4, 2, 1.
B4, 2, -1.
B1, 2, 1.
T1, 2, -1.
*Equation
2
B4, 1, 1.
T4, 1, -1.
*Equation
2
B4, 6, 1.
T4, 6, -1.
*Equation
4
T5, 2, 1.
B5, 2, -1.
B1, 2, 1.
T1, 2, -1.
*Equation
2
B5, 1, 1.
T5, 1, -1.
*Equation
2
B5, 6, 1.
T5, 6, -1.
*Equation
4
T6, 2, 1.
B6, 2, -1.
B1, 2, 1.
T1, 2, -1.
*Equation
2
B6, 1, 1.
T6, 1, -1.
*Equation
2
B6, 6, 1.
T6, 6, -1.
*End Assembly
**
** MATERIALS
**
** A linear elastic model
*Material, name=Elastic
*Elastic
200000.000000, 0.333333
** ----------------------------------------------------------------
**
** STEP: Step-1
**
*Step, name=Step-1, nlgeom=NO, inc=30000
*Static
1., 1., 0.0001, 1.
**
** BOUNDARY CONDITIONS
**
** Name: Displ Type: Displacement/Rotation
*Boundary
B1, 1, 2
T1, 2, 2, 1.039230
**
** OUTPUT REQUESTS
***Restart, write, frequency=0
**
** FIELD OUTPUT: F-Output-1
**
*Output, field, variable=PRESELECT, number interval=1
**
** HISTORY OUTPUT: H-Output-1
**
*Output, history
*Node Output, nset=T1
RF2, U2
*End Step
