*Heading
** Generated with Matlab script
*Preprint, echo=NO, model=NO, history=NO, contact=NO
**
** PARTS
**
*Part, name=Lattice
*Node
      1,     -0.738885,     10.627608
      2,     -0.061637,     38.192907
      3,     -0.655641,     64.510194
      4,     -1.743464,     91.628560
      5,      5.724974,     23.067216
      6,      2.030626,     48.950891
      7,      3.435195,     75.777397
      8,      4.116186,    104.310826
      9,      7.493222,      4.159789
     10,      9.982889,     15.499336
     11,      8.601773,     33.254681
     12,      9.798156,     41.139070
     13,      7.142445,     57.654438
     14,      7.441833,     69.703180
     15,     10.507099,     84.732310
     16,      8.667270,     96.950963
     17,      7.493222,    113.441823
     18,     12.854838,     22.957360
     19,     15.242089,     49.570283
     20,     14.344554,     76.925903
** ... 108 like lines cut
*Element, type=B23
      1,       1,       9
      2,       1,      10
      3,       2,      11
      4,       2,      12
      5,       3,      13
      6,       3,      14
      7,       4,      15
      8,       4,      16
      9,       5,      10
     10,       5,      11
     11,       5,      18
     12,       6,      12
     13,       6,      13
     14,       6,      19
     15,       7,      14
     16,       7,      15
     17,       7,      20
     18,       8,      16
     19,       8,      17
     20,       8,      21
** ... 268 like lines cut
*Nset, nset=EntireLatticeSet, generate
   1, 128,   1
*Elset, elset=EntireLatticeSet, generate
   1, 288,   1
** Section: BeamSection  Profile: Rect
*Beam Section, elset=EntireLatticeSet, material=Elastic, temperature=GRADIENTS, section=RECT
1., 0.176831
0.,0.,1.
*End Part
**
**
** ASSEMBLY
**
*Assembly, name=Assembly
**
*Instance, name=Lattice, part=Lattice
*End Instance
**
*Nset, nset=B1, instance=Lattice
 9,
*Nset, nset=B2, instance=Lattice
 22,
*Nset, nset=B3, instance=Lattice
 39,
*Nset, nset=B4, instance=Lattice
 52,
*Nset, nset=B5, instance=Lattice
 69,
*Nset, nset=B6, instance=Lattice
 82,
*Nset, nset=B7, instance=Lattice
 99,
*Nset, nset=B8, instance=Lattice
 112,
*Nset, nset=L1, instance=Lattice
 1,
*Nset, nset=L2, instance=Lattice
 5,
*Nset, nset=L3, instance=Lattice
 2,
*Nset, nset=L4, instance=Lattice
 6,
*Nset, nset=L5, instance=Lattice
 3,
*Nset, nset=L6, instance=Lattice
 7,
*Nset, nset=L7, instance=Lattice
 4,
*Nset, nset=L8, instance=Lattice
 8,
*Nset, nset=R1, instance=Lattice
 121,
*Nset, nset=R2, instance=Lattice
 125,
*Nset, nset=R3, instance=Lattice
 122,
*Nset, nset=R4, instance=Lattice
 126,
*Nset, nset=R5, instance=Lattice
 123,
*Nset, nset=R6, instance=Lattice
 127,
*Nset, nset=R7, instance=Lattice
 124,
*Nset, nset=R8, instance=Lattice
 128,
*Nset, nset=T1, instance=Lattice
 17,
*Nset, nset=T2, instance=Lattice
 30,
*Nset, nset=T3, instance=Lattice
 47,
*Nset, nset=T4, instance=Lattice
 60,
*Nset, nset=T5, instance=Lattice
 77,
*Nset, nset=T6, instance=Lattice
 90,
*Nset, nset=T7, instance=Lattice
 107,
*Nset, nset=T8, instance=Lattice
 120,
*Equation
2
L1, 2, 1.
R1, 2, -1.
*Equation
2
L1, 6, 1.
R1, 6, -1.
*Equation
4
R2, 1, 1.
L2, 1, -1.
L1, 1, 1.
R1, 1, -1.
*Equation
2
L2, 2, 1.
R2, 2, -1.
*Equation
2
L2, 6, 1.
R2, 6, -1.
*Equation
4
R3, 1, 1.
L3, 1, -1.
L1, 1, 1.
R1, 1, -1.
*Equation
2
L3, 2, 1.
R3, 2, -1.
*Equation
2
L3, 6, 1.
R3, 6, -1.
*Equation
4
R4, 1, 1.
L4, 1, -1.
L1, 1, 1.
R1, 1, -1.
*Equation
2
L4, 2, 1.
R4, 2, -1.
*Equation
2
L4, 6, 1.
R4, 6, -1.
*Equation
4
R5, 1, 1.
L5, 1, -1.
L1, 1, 1.
R1, 1, -1.
*Equation
2
L5, 2, 1.
R5, 2, -1.
*Equation
2
L5, 6, 1.
R5, 6, -1.
*Equation
4
R6, 1, 1.
L6, 1, -1.
L1, 1, 1.
R1, 1, -1.
*Equation
2
L6, 2, 1.
R6, 2, -1.
*Equation
2
L6, 6, 1.
R6, 6, -1.
*Equation
4
R7, 1, 1.
L7, 1, -1.
L1, 1, 1.
R1, 1, -1.
*Equation
2
L7, 2, 1.
R7, 2, -1.
*Equation
2
L7, 6, 1.
R7, 6, -1.
*Equation
4
R8, 1, 1.
L8, 1, -1.
L1, 1, 1.
R1, 1, -1.
*Equation
2
L8, 2, 1.
R8, 2, -1.
*Equation
2
L8, 6, 1.
R8, 6, -1.
*Equation
2
B1, 1, 1.
T1, 1, -1.
*Equation
2
B1, 6, 1.
T1, 6, -1.
*Equation
4
T2, 2, 1.
B2, 2, -1.
B1, 2, 1.
T1, 2, -1.
*Equation
2
B2, 1, 1.
T2, 1, -1.
*Equation
2
B2, 6, 1.
T2, 6, -1.
*Equation
4
T3, 2, 1.
B3, 2, -1.
B1, 2, 1.
T1, 2, -1.
*Equation
2
B3, 1, 1.
T3, 1, -1.
*Equation
2
B3, 6, 1.
T3, 6, -1.
*Equation
4
T4, 2, 1.
B4, 2, -1.
B1, 2, 1.
T1, 2, -1.
*Equation
2
B4, 1, 1.
T4, 1, -1.
*Equation
2
B4, 6, 1.
T4, 6, -1.
*Equation
4
T5, 2, 1.
B5, 2, -1.
B1, 2, 1.
T1, 2, -1.
*Equation
2
B5, 1, 1.
T5, 1, -1.
*Equation
2
B5, 6, 1.
T5, 6, -1.
*Equation
4
T6, 2, 1.
B6, 2, -1.
B1, 2, 1.
T1, 2, -1.
*Equation
2
B6, 1, 1.
T6, 1, -1.
*Equation
2
B6, 6, 1.
T6, 6, -1.
*Equation
4
T7, 2, 1.
B7, 2, -1.
B1, 2, 1.
T1, 2, -1.
*Equation
2
B7, 1, 1.
T7, 1, -1.
*Equation
2
B7, 6, 1.
T7, 6, -1.
*Equation
4
T8, 2, 1.
B8, 2, -1.
B1, 2, 1.
T1, 2, -1.
*Equation
2
B8, 1, 1.
T8, 1, -1.
*Equation
2
B8, 6, 1.
T8, 6, -1.
*End Assembly
**
** MATERIALS
**
** A linear elastic model
*Material, name=Elastic
*Elastic
200000.000000, 0.333333
** ----------------------------------------------------------------
**
** STEP: Step-1
**
*Step, name=Step-1, nlgeom=NO, inc=30000
*Static
1., 1., 0.0001, 1.
**
** BOUNDARY CONDITIONS
**
** Name: Displ Type: Displacement/Rotation
*Boundary
B1, 1, 2
T1, 2, 2, 1.092820
**
** OUTPUT REQUESTS
***Restart, write, frequency=0
**
** FIELD OUTPUT: F-Output-1
**
*Output, field, variable=PRESELECT, number interval=1
**
** HISTORY OUTPUT: H-Output-1
**
*Output, history
*Node Output, nset=T1
RF2, U2
*End Step
