*Heading
** Generated with Matlab script
*Preprint, echo=NO, model=NO, history=NO, contact=NO
**
** PARTS
**
*Part, name=Lattice
*Node
      1,     -0.311664,     10.309444
      2,      1.595980,     27.109782
      3,     -0.778562,     46.831493
      4,     -0.381939,     64.088500
      5,     -1.946052,     84.866851
      6,      1.450894,    100.633011
      7,      3.922048,     18.931391
      8,      5.403669,     55.204502
      9,      6.409189,     93.425062
     10,      8.171499,      6.735955
     11,      9.835320,     32.659709
     12,      7.329783,     41.094832
     13,      7.683367,     70.115843
     14,      8.405284,     78.771367
     15,      6.858436,    106.671764
     16,      8.171499,    118.697482
     17,     13.958580,     13.427293
     18,     12.360918,     24.299626
     19,     12.144556,     50.872000
     20,     13.227009,     59.806586
** ... 145 like lines cut
*Element, type=B23
      1,       1,       7
      2,       1,      10
      3,       2,       7
      4,       2,      11
      5,       3,       8
      6,       3,      12
      7,       4,       8
      8,       4,      13
      9,       5,       9
     10,       5,      14
     11,       6,       9
     12,       6,      15
     13,       7,      17
     14,       7,      18
     15,       8,      19
     16,       8,      20
     17,       9,      21
     18,       9,      22
     19,      10,      17
     20,      10,      23
** ... 304 like lines cut
*Nset, nset=EntireLatticeSet, generate
   1, 165,   1
*Elset, elset=EntireLatticeSet, generate
   1, 324,   1
** Section: BeamSection  Profile: Rect
*Beam Section, elset=EntireLatticeSet, material=Elastic, temperature=GRADIENTS, section=RECT
1., 0.220891
0.,0.,1.
*End Part
**
**
** ASSEMBLY
**
*Assembly, name=Assembly
**
*Instance, name=Lattice, part=Lattice
*End Instance
**
*Nset, nset=B1, instance=Lattice
 10,
*Nset, nset=B2, instance=Lattice
 23,
*Nset, nset=B3, instance=Lattice
 36,
*Nset, nset=B4, instance=Lattice
 46,
*Nset, nset=B5, instance=Lattice
 56,
*Nset, nset=B6, instance=Lattice
 69,
*Nset, nset=B7, instance=Lattice
 88,
*Nset, nset=B8, instance=Lattice
 101,
*Nset, nset=B9, instance=Lattice
 114,
*Nset, nset=B10, instance=Lattice
 124,
*Nset, nset=B11, instance=Lattice
 134,
*Nset, nset=B12, instance=Lattice
 147,
*Nset, nset=L1, instance=Lattice
 1,
*Nset, nset=L2, instance=Lattice
 7,
*Nset, nset=L3, instance=Lattice
 2,
*Nset, nset=L4, instance=Lattice
 3,
*Nset, nset=L5, instance=Lattice
 8,
*Nset, nset=L6, instance=Lattice
 4,
*Nset, nset=L7, instance=Lattice
 5,
*Nset, nset=L8, instance=Lattice
 9,
*Nset, nset=L9, instance=Lattice
 6,
*Nset, nset=R1, instance=Lattice
 157,
*Nset, nset=R2, instance=Lattice
 163,
*Nset, nset=R3, instance=Lattice
 158,
*Nset, nset=R4, instance=Lattice
 159,
*Nset, nset=R5, instance=Lattice
 164,
*Nset, nset=R6, instance=Lattice
 160,
*Nset, nset=R7, instance=Lattice
 161,
*Nset, nset=R8, instance=Lattice
 165,
*Nset, nset=R9, instance=Lattice
 162,
*Nset, nset=T1, instance=Lattice
 16,
*Nset, nset=T2, instance=Lattice
 29,
*Nset, nset=T3, instance=Lattice
 39,
*Nset, nset=T4, instance=Lattice
 49,
*Nset, nset=T5, instance=Lattice
 62,
*Nset, nset=T6, instance=Lattice
 75,
*Nset, nset=T7, instance=Lattice
 94,
*Nset, nset=T8, instance=Lattice
 107,
*Nset, nset=T9, instance=Lattice
 117,
*Nset, nset=T10, instance=Lattice
 127,
*Nset, nset=T11, instance=Lattice
 140,
*Nset, nset=T12, instance=Lattice
 153,
*Equation
2
L1, 2, 1.
R1, 2, -1.
*Equation
2
L1, 6, 1.
R1, 6, -1.
*Equation
4
R2, 1, 1.
L2, 1, -1.
L1, 1, 1.
R1, 1, -1.
*Equation
2
L2, 2, 1.
R2, 2, -1.
*Equation
2
L2, 6, 1.
R2, 6, -1.
*Equation
4
R3, 1, 1.
L3, 1, -1.
L1, 1, 1.
R1, 1, -1.
*Equation
2
L3, 2, 1.
R3, 2, -1.
*Equation
2
L3, 6, 1.
R3, 6, -1.
*Equation
4
R4, 1, 1.
L4, 1, -1.
L1, 1, 1.
R1, 1, -1.
*Equation
2
L4, 2, 1.
R4, 2, -1.
*Equation
2
L4, 6, 1.
R4, 6, -1.
*Equation
4
R5, 1, 1.
L5, 1, -1.
L1, 1, 1.
R1, 1, -1.
*Equation
2
L5, 2, 1.
R5, 2, -1.
*Equation
2
L5, 6, 1.
R5, 6, -1.
*Equation
4
R6, 1, 1.
L6, 1, -1.
L1, 1, 1.
R1, 1, -1.
*Equation
2
L6, 2, 1.
R6, 2, -1.
*Equation
2
L6, 6, 1.
R6, 6, -1.
*Equation
4
R7, 1, 1.
L7, 1, -1.
L1, 1, 1.
R1, 1, -1.
*Equation
2
L7, 2, 1.
R7, 2, -1.
*Equation
2
L7, 6, 1.
R7, 6, -1.
*Equation
4
R8, 1, 1.
L8, 1, -1.
L1, 1, 1.
R1, 1, -1.
*Equation
2
L8, 2, 1.
R8, 2, -1.
*Equation
2
L8, 6, 1.
R8, 6, -1.
*Equation
4
R9, 1, 1.
L9, 1, -1.
L1, 1, 1.
R1, 1, -1.
*Equation
2
L9, 2, 1.
R9, 2, -1.
*Equation
2
L9, 6, 1.
R9, 6, -1.
*Equation
2
B1, 1, 1.
T1, 1, -1.
*Equation
2
B1, 6, 1.
T1, 6, -1.
*Equation
4
T2, 2, 1.
B2, 2, -1.
B1, 2, 1.
T1, 2, -1.
*Equation
2
B2, 1, 1.
T2, 1, -1.
*Equation
2
B2, 6, 1.
T2, 6, -1.
*Equation
4
T3, 2, 1.
B3, 2, -1.
B1, 2, 1.
T1, 2, -1.
*Equation
2
B3, 1, 1.
T3, 1, -1.
*Equation
2
B3, 6, 1.
T3, 6, -1.
*Equation
4
T4, 2, 1.
B4, 2, -1.
B1, 2, 1.
T1, 2, -1.
*Equation
2
B4, 1, 1.
T4, 1, -1.
*Equation
2
B4, 6, 1.
T4, 6, -1.
*Equation
4
T5, 2, 1.
B5, 2, -1.
B1, 2, 1.
T1, 2, -1.
*Equation
2
B5, 1, 1.
T5, 1, -1.
*Equation
2
B5, 6, 1.
T5, 6, -1.
*Equation
4
T6, 2, 1.
B6, 2, -1.
B1, 2, 1.
T1, 2, -1.
*Equation
2
B6, 1, 1.
T6, 1, -1.
*Equation
2
B6, 6, 1.
T6, 6, -1.
*Equation
4
T7, 2, 1.
B7, 2, -1.
B1, 2, 1.
T1, 2, -1.
*Equation
2
B7, 1, 1.
T7, 1, -1.
*Equation
2
B7, 6, 1.
T7, 6, -1.
*Equation
4
T8, 2, 1.
B8, 2, -1.
B1, 2, 1.
T1, 2, -1.
*Equation
2
B8, 1, 1.
T8, 1, -1.
*Equation
2
B8, 6, 1.
T8, 6, -1.
*Equation
4
T9, 2, 1.
B9, 2, -1.
B1, 2, 1.
T1, 2, -1.
*Equation
2
B9, 1, 1.
T9, 1, -1.
*Equation
2
B9, 6, 1.
T9, 6, -1.
*Equation
4
T10, 2, 1.
B10, 2, -1.
B1, 2, 1.
T1, 2, -1.
*Equation
2
B10, 1, 1.
T10, 1, -1.
*Equation
2
B10, 6, 1.
T10, 6, -1.
*Equation
4
T11, 2, 1.
B11, 2, -1.
B1, 2, 1.
T1, 2, -1.
*Equation
2
B11, 1, 1.
T11, 1, -1.
*Equation
2
B11, 6, 1.
T11, 6, -1.
*Equation
4
T12, 2, 1.
B12, 2, -1.
B1, 2, 1.
T1, 2, -1.
*Equation
2
B12, 1, 1.
T12, 1, -1.
*Equation
2
B12, 6, 1.
T12, 6, -1.
*End Assembly
**
** MATERIALS
**
** A linear elastic model
*Material, name=Elastic
*Elastic
200000.000000, 0.333333
** ----------------------------------------------------------------
**
** STEP: Step-1
**
*Step, name=Step-1, nlgeom=NO, inc=30000
*Static
1., 1., 0.0001, 1.
**
** BOUNDARY CONDITIONS
**
** Name: Displ Type: Displacement/Rotation
*Boundary
B1, 1, 2
T1, 2, 2, 1.119615
**
** OUTPUT REQUESTS
***Restart, write, frequency=0
**
** FIELD OUTPUT: F-Output-1
**
*Output, field, variable=PRESELECT, number interval=1
**
** HISTORY OUTPUT: H-Output-1
**
*Output, history
*Node Output, nset=T1
RF2, U2
*End Step
